 &time_control
 run_days                            = 0,
 run_hours                           = 6,
 run_minutes                         = 0,
 run_seconds                         = 0,
 start_year                          = 2018,  2017,
 start_month                         = 07,    06,  
 start_day                           = 14,    01,  
 start_hour                          = 12,    09,  
 start_minute                        = 00,    00,  
 start_second                        = 00,    00,  
 end_year                            = 2018,  2017,
 end_month                           = 07,    06,  
 end_day                             = 14,    01,  
 end_hour                            = 18,    15,  
 end_minute                          = 00,    00,  
 end_second                          = 00,    00,  
 interval_seconds                    = 3600,
 input_from_file                     = .true.,.true.,
 history_interval                    = 60,    60,    
 frames_per_outfile                  = 1,     1,     
 restart                             = .false.,
 restart_interval                    = 9999,
 io_form_history                     = 2, 
 io_form_restart                     = 2,
 io_form_input                       = 2,
 io_form_boundary                    = 2,
 debug_level                         = 0,
 ncd_nofill                          = .true.,
 nwp_diagnostics                     = 0,
 iofields_filename                   = "/glade/work/jaredlee/workflow/templates/iofields_nysm_d01.txt",
 ignore_iofields_warning             = .true.,
 /

 &domains
 time_step                           = 6, 
 time_step_fract_num                 = 0,
 time_step_fract_den                 = 1,
 max_dom                             = 1,
 s_we                                = 1,     1,  
 e_we                                = 340,   265,
 s_sn                                = 1,     1,  
 e_sn                                = 340,   265,
 s_vert                              = 1,     1,  
 e_vert                              = 51,    51, 
 num_metgrid_levels                  = 51, 
 num_metgrid_soil_levels             = 9,
 dx                                  = 1000,  1000,
 dy                                  = 1000,  1000,
 grid_id                             = 1,     2,   
 parent_id                           = 1,     1,   
 i_parent_start                      = 0,     161, 
 j_parent_start                      = 0,     16,  
 parent_grid_ratio                   = 1,     3,   
 parent_time_step_ratio              = 1,     3,   
 feedback                            = 0,
 smooth_option                       = 0,
 p_top_requested                     = 5000,

 use_tavg_for_tsk                    = .false.,
 interp_type                         = 2,
 extrap_type                         = 2,
 t_extrap_type                       = 2,
 lowest_lev_from_sfc                 = .false.,
 use_levels_below_ground             = .true.,
 use_surface                         = .true.,
 lagrange_order                      = 1,
 force_sfc_in_vinterp                = 1,
 zap_close_levels                    = 500,
 smooth_cg_topo                      = .false.,
 sfcp_to_sfcp                        = .false.,
 adjust_heights                      = .false.,
 max_ts_locs                         = 200,
 max_ts_level                        = 15,
 eta_levels   =   1.0000, 0.9980, 0.9940, 0.9870, 0.9750, 0.9590,
          0.9390, 0.9160, 0.8920, 0.8650, 0.8350, 0.8020, 0.7660,
          0.7270, 0.6850, 0.6400, 0.5920, 0.5420, 0.4970, 0.4565,
          0.4205, 0.3877, 0.3582, 0.3317, 0.3078, 0.2863, 0.2670,
          0.2496, 0.2329, 0.2188, 0.2047, 0.1906, 0.1765, 0.1624,
          0.1483, 0.1342, 0.1201, 0.1060, 0.0919, 0.0778, 0.0657,
          0.0568, 0.0486, 0.0409, 0.0337, 0.0271, 0.0209, 0.0151,
          0.0097, 0.0047, 0.0000,
 wif_input_opt                       = 1,
 num_wif_levels                      = 30,
 /

 &physics
 mp_physics                          = 8,    28,
 do_radar_ref                        = 0,
 ra_lw_physics                       = 4,     4, 
 ra_sw_physics                       = 4,     4, 
 radt                                = 1,    10, 
 swint_opt                           = 1,
 sf_sfclay_physics                   = 1,     5, 
 sf_surface_physics                  = 2,     2, 
 sf_lake_physics                     = 0,     0, 
 bl_pbl_physics                      = 5,     5, 
 bldt                                = 0,     0, 
 tke_budget                          = 1,
 bl_mynn_tkeadvect                   = .false.,
 bl_mynn_cloudpdf                    = 1,
 bl_mynn_mixlength                   = 2,
 bl_mynn_edmf                        = 1,
 bl_mynn_edmf_mom                    = 0,
 bl_mynn_edmf_tke                    = 0,
 grav_settling                       = 0,
 scalar_pblmix                       = 1,
 cu_physics                          = 0,     0, 
 cudt                                = 0,     0, 
 isfflx                              = 1,
 ifsnow                              = 1,
 icloud                              = 3,
 icloud_bl                           = 1,
 surface_input_source                = 1,
 num_soil_layers                     = 8,
 sf_urban_physics                    = 0,
 mp_zero_out                         = 2,
 mp_zero_out_thresh                  = 1.e-12,
 use_aero_icbc                       = .true.,
 maxiens                             = 1,
 maxens                              = 3,
 maxens2                             = 3,
 maxens3                             = 16,
 ensdim                              = 144,
 usemonalb                           = .true.,
 rdlai2d                             = .true.,
 num_land_cat                        = 40,
 mosaic_lu                           = 1,
 mosaic_soil                         = 1,
 fractional_seaice                   = 0,
 seaice_threshold                    = 271.4,
 aer_opt                             = 3,
 /

&diags
 solar_diagnostics                   = 1,

 &fdda
 /

 &dynamics
 w_damping                           = 1,
 diff_opt                            = 2,
 km_opt                              = 4,
 diff_6th_opt                        = 2,
 diff_6th_factor                     = 0.25,
 damp_opt                            = 3,
 zdamp                               = 5000.,  5000.,
 dampcoef                            = 0.2,    0.01, 
 khdif                               = 0,      0,    
 kvdif                               = 0,      0,    
 SMDIV                               = 0.1,    0.1,  
 EMDIV                               = 0.01,   0.01, 
 EPSSM                               = 0.1,    0.1,  
 non_hydrostatic                     = .true., .true.,
 moist_adv_opt                       = 2,      2,    
 scalar_adv_opt                      = 2,      2,    
 TIME_STEP_SOUND                     = 6,      4,    
 H_MOM_ADV_ORDER                     = 5,      5,    
 V_MOM_ADV_ORDER                     = 3,      3,    
 H_SCA_ADV_ORDER                     = 5,      5,    
 V_SCA_ADV_ORDER                     = 3,      3,    
 hybrid_opt                          = 2,
 /

 &bdy_control
 spec_bdy_width                      = 10,
 spec_zone                           = 1,
 relax_zone                          = 9,
 specified                           = .true., .false.,
 nested                              = .false., .true.,
 /

 &grib2
 /

 &namelist_quilt
 nio_tasks_per_group = 0,
 nio_groups = 0,
 /
